data/casedata/data_init/aus-data/AU14GenModelData_Ver04/LF_Case02_R4_Report.txt
1                                    PTI INTERACTIVE POWER SYSTEM SIMULATOR--PSS®E      MON, FEB 17 2014  18:49
                         LF_CASE02_R3_S 14-GEN. SIMPLIFIED MODEL OF 4-STATE SYSTEM.       %MVA FOR TRANSFORMERS
                         NORTHFLOW AREA5->AREA3->AREA2->AREA4 500-1000-500                % I  FOR NON-TRANSFORMER BRANCHES

 X------- FROM BUS ------X AREA  VOLT            GEN    LOAD    SHUNT  X---------- TO BUS ----------X                        TRANSFORMER     RATING
   BUS# X-- NAME --X BASKV ZONE  PU/KV  ANGLE  MW/MVAR MW/MVAR MW/MVAR   BUS# X-- NAME --X BASKV AREA CKT    MW     MVAR    RATIO   ANGLE   %  SET A

    101 1_HPSGEN    15.000    1 1.0000    0.0   478.7      0.0     0.0 -----------------------------------------------------------------------------
                              1 15.000          163.3R     0.0     0.0    102 1_HPS330    330.00    1  1    478.7   163.3  0.948LK

    102 1_HPS330    330.00    1 1.0378   -3.0     0.0    380.0     0.0 -----------------------------------------------------------------------------
                              1 342.48            0.0     38.0     0.0    101 1_HPSGEN    15.000    1  1   -478.7  -135.8  1.000UN
                                                                          217 2_YC_330    330.00    2  1    265.2   -58.7
                                                                          217 2_YC_330    330.00    2  2    265.2   -58.7
                                                                          217 2_YC_330    330.00    2  3    285.3   -56.7
                                                                          217 2_YC_330    330.00    2  4    285.3   -56.7
                                                                          309 3_D__330    330.00    3  1   -415.8   149.3
                                                                          309 3_D__330    330.00    3  2   -415.8   149.3
                                                                          309 3_D__330    330.00    3  3   -170.6    29.8
    201 2_BPSGEN    20.000    2 1.0000    3.0  2800.0      0.0     0.0 -----------------------------------------------------------------------------
                              1 20.000          194.4R     0.0     0.0    206 2_BPS330    330.00    2  1   2800.0   194.4  0.948LK

    202 2_EPSGEN    20.000    2 1.0000   -1.0  1920.0      0.0     0.0 -----------------------------------------------------------------------------
                              1 20.000          242.0R     0.0     0.0    209 2_EPS330    330.00    2  1   1920.0   242.0  0.948LK

    203 2_VPSGEN    20.000    2 1.0000   -3.9  1350.0      0.0     0.0 -----------------------------------------------------------------------------
                              1 20.000          247.2R     0.0     0.0    208 2_VPS330    330.00    2  1   1350.0   247.2  0.948LK

    204 2_MPSGEN    20.000    2 1.0000   -1.5  1584.0      0.0     0.0 -----------------------------------------------------------------------------
                              1 20.000           71.3R     0.0     0.0    215 2_MPS330    330.00    2  1   1584.0    71.3  0.948LK

    205 2_ASV330    330.00    2 1.0550  -20.6     0.0    330.0     0.0 -----------------------------------------------------------------------------
                              1 348.15           41.8R    33.0     0.0    206 2_BPS330    330.00    2  1   -406.3    63.0
                                                                          206 2_BPS330    330.00    2  2   -406.3    63.0
                                                                          416 4_DU_330    330.00    4  1    241.3   -58.6
                                                                          416 4_DU_330    330.00    4  2    241.3   -58.6
    206 2_BPS330    330.00    2 1.0538   -3.9     0.0    110.0     0.0 -----------------------------------------------------------------------------
                              1 347.77            0.0     11.0     0.0    201 2_BPSGEN    20.000    2  1  -2800.0   145.4  1.000UN
                                                                          205 2_ASV330    330.00    2  1    421.7   -44.7
                                                                          205 2_ASV330    330.00    2  2    421.7   -44.7
                                                                          207 2_N__330    330.00    2  1    382.6     6.3
                                                                          207 2_N__330    330.00    2  2    382.6     6.3
                                                                          212 2_SW_330    330.00    2  1    449.5     7.3
                                                                          212 2_SW_330    330.00    2  2    449.5     7.3
                                                                          215 2_MPS330    330.00    2  1     91.2   -47.1
                                                                          215 2_MPS330    330.00    2  2     91.2   -47.1
    207 2_N__330    330.00    2 1.0351  -11.0     0.0   1600.0     0.0 -----------------------------------------------------------------------------
                              1 341.59            0.0    160.0     0.0    206 2_BPS330    330.00    2  1   -376.6    -6.8
                                                                          206 2_BPS330    330.00    2  2   -376.6    -6.8
                                                                          208 2_VPS330    330.00    2  1     14.1   -41.8
                                                                          208 2_VPS330    330.00    2  2     14.1   -41.8
                                                                          209 2_EPS330    330.00    2  1   -875.1   -62.8
    208 2_VPS330    330.00    2 1.0393  -11.2     0.0    180.0     0.0 -----------------------------------------------------------------------------
                              1 342.97            0.0     18.0     0.0    203 2_VPSGEN    20.000    2  1  -1350.0   -74.6  1.000UN
                                                                          207 2_N__330    330.00    2  1    -14.1    23.6
                                                                          207 2_N__330    330.00    2  2    -14.1    23.6
                                                                          211 2_SN_330    330.00    2  1    399.4     3.1
                                                                          211 2_SN_330    330.00    2  2    399.4     3.1
                                                                          211 2_SN_330    330.00    2  3    399.4     3.1
    209 2_EPS330    330.00    2 1.0467   -8.2     0.0      0.0     0.0 -----------------------------------------------------------------------------
                              1 345.41            0.0      0.0     0.0    202 2_EPSGEN    20.000    2  1  -1920.0     0.3  1.000UN
                                                                          207 2_N__330    330.00    2  1    880.8    99.1
                                                                          210 2_EPS500    500.00    2  1    150.8   -26.3  0.990LK
                                                                          210 2_EPS500    500.00    2  2    150.8   -26.3  0.990LK
                                                                          210 2_EPS500    500.00    2  3    150.8   -26.3  0.990LK
                                                                          210 2_EPS500    500.00    2  4    150.8   -26.3  0.990LK
                                                                          212 2_SW_330    330.00    2  1    435.9     5.8
    210 2_EPS500    500.00    2 1.0646  -10.3     0.0      0.0     0.0 -----------------------------------------------------------------------------
                              1 532.31            0.0      0.0     0.0    209 2_EPS330    330.00    2  1   -150.8    32.0  1.000UN
                                                                          209 2_EPS330    330.00    2  2   -150.8    32.0  1.000UN
                                                                          209 2_EPS330    330.00    2  3   -150.8    32.0  1.000UN
                                                                          209 2_EPS330    330.00    2  4   -150.8    32.0  1.000UN
                                                                          213 2_K__500    500.00    2  1    301.7   -64.0
                                                                          213 2_K__500    500.00    2  2    301.7   -64.0
    211 2_SN_330    330.00    2 1.0271  -16.4     0.0   1445.0     0.0 -----------------------------------------------------------------------------
                              1 338.94            0.0    145.0     0.0    208 2_VPS330    330.00    2  1   -394.8     1.1
                                                                          208 2_VPS330    330.00    2  2   -394.8     1.1
                                                                          208 2_VPS330    330.00    2  3   -394.8     1.1
                                                                          212 2_SW_330    330.00    2  1    -11.3   -17.8
                                                                          212 2_SW_330    330.00    2  2    -11.3   -17.8
                                                                          214 2_K__330    330.00    2  1   -238.0  -112.7
    212 2_SW_330    330.00    2 1.0284  -16.4     0.0   1410.0     0.0 -----------------------------------------------------------------------------
                              1 339.36            0.0    140.0  -158.6    206 2_BPS330    330.00    2  1   -437.3    19.4
                                                                          206 2_BPS330    330.00    2  2   -437.3    19.4
                                                                          209 2_EPS330    330.00    2  1   -428.0     9.1
                                                                          211 2_SN_330    330.00    2  1     11.3     3.8
                                                                          211 2_SN_330    330.00    2  2     11.3     3.8
                                                                          217 2_YC_330    330.00    2  1   -129.8   -37.0
    213 2_K__500    500.00    2 1.0594  -12.5     0.0      0.0     0.0 -----------------------------------------------------------------------------
                              1 529.70            0.0      0.0     0.0    210 2_EPS500    500.00    2  1   -300.9   -98.0
                                                                          210 2_EPS500    500.00    2  2   -300.9   -98.0
                                                                          214 2_K__330    330.00    2  1    150.4    49.0  1.000LK
                                                                          214 2_K__330    330.00    2  2    150.4    49.0  1.000LK
                                                                          214 2_K__330    330.00    2  3    150.4    49.0  1.000LK
                                                                          214 2_K__330    330.00    2  4    150.4    49.0  1.000LK
    214 2_K__330    330.00    2 1.0475  -14.6     0.0      0.0     0.0 -----------------------------------------------------------------------------
                              1 345.69            0.0      0.0     0.0    211 2_SN_330    330.00    2  1    239.2   102.2
                                                                          213 2_K__500    500.00    2  1   -150.4   -42.9  1.000UN
                                                                          213 2_K__500    500.00    2  2   -150.4   -42.9  1.000UN
                                                                          213 2_K__500    500.00    2  3   -150.4   -42.9  1.000UN
                                                                          213 2_K__500    500.00    2  4   -150.4   -42.9  1.000UN
                                                                          216 2_SS_330    330.00    2  1    460.0    61.2
                                                                          217 2_YC_330    330.00    2  1    -97.5     8.4
    215 2_MPS330    330.00    2 1.0548   -6.4     0.0    410.0     0.0 -----------------------------------------------------------------------------
                              1 348.07            0.0     40.0     0.0    204 2_MPSGEN    20.000    2  1  -1584.0    64.2  1.000UN
                                                                          206 2_BPS330    330.00    2  1    -90.7   -20.7
                                                                          206 2_BPS330    330.00    2  2    -90.7   -20.7
                                                                          216 2_SS_330    330.00    2  1    474.1    -4.6
                                                                          216 2_SS_330    330.00    2  2    474.1    -4.6
                                                                          217 2_YC_330    330.00    2  1    203.7   -26.9
                                                                          217 2_YC_330    330.00    2  2    203.7   -26.9
    216 2_SS_330    330.00    2 1.0388  -16.4     0.0   1565.0     0.0 -----------------------------------------------------------------------------
                              1 342.80            0.0    155.0  -161.9    214 2_K__330    330.00    2  1   -458.0   -56.3
                                                                          215 2_MPS330    330.00    2  1   -463.7    32.0
                                                                          215 2_MPS330    330.00    2  2   -463.7    32.0
                                                                          217 2_YC_330    330.00    2  1   -179.5    -0.9
    217 2_YC_330    330.00    2 1.0400  -12.5     0.0   1070.0     0.0 -----------------------------------------------------------------------------
                              1 343.21            0.0    110.0     0.0    102 1_HPS330    330.00    1  1   -259.7    14.1
                                                                          102 1_HPS330    330.00    1  2   -259.7    14.1
                                                                          102 1_HPS330    330.00    1  3   -279.4    21.6
                                                                          102 1_HPS330    330.00    1  4   -279.4    21.6
                                                                          212 2_SW_330    330.00    2  1    131.0   -27.3
                                                                          214 2_K__330    330.00    2  1     98.0   -56.4
                                                                          215 2_MPS330    330.00    2  1   -201.0   -28.8
                                                                          215 2_MPS330    330.00    2  2   -201.0   -28.8
                                                                          216 2_SS_330    330.00    2  1    181.0   -40.2
    301 3_LPSGEN    20.000    3 1.0000   48.8  4680.0      0.0     0.0 -----------------------------------------------------------------------------
                              1 20.000         1128.6R     0.0     0.0    303 3_LPS500    500.00    3  1   4680.0  1128.6  0.935LK

    302 3_YPSGEN    20.000    3 1.0000   42.1  1532.0      0.0     0.0 -----------------------------------------------------------------------------
                              1 20.000          253.1R     0.0     0.0    312 3_YPS220    220.00    3  1   1532.0   253.1  0.952LK

    303 3_LPS500    500.00    3 1.0466   41.6     0.0      0.0     0.0 -----------------------------------------------------------------------------
                              1 523.30            0.0      0.0     0.0    301 3_LPSGEN    20.000    3  1  -4680.0  -521.3  1.000UN
                                                                          304 3_R__500    500.00    3  1    773.6   106.3
                                                                          304 3_R__500    500.00    3  2    773.6   106.3
                                                                          305 3_SM_500    500.00    3  1   1566.4   154.3
                                                                          305 3_SM_500    500.00    3  2   1566.4   154.3
    304 3_R__500    500.00    3 1.0133   30.0     0.0      0.0     0.0 -----------------------------------------------------------------------------
                              1 506.65            0.0      0.0     0.0    303 3_LPS500    500.00    3  1   -762.3   -26.4
                                                                          303 3_LPS500    500.00    3  2   -762.3   -26.4
                                                                          305 3_SM_500    500.00    3  1    796.1  -243.1
                                                                          313 3_RSV220    220.00    3  1    364.2   147.9  0.961LK
                                                                          313 3_RSV220    220.00    3  2    364.2   147.9  0.961LK
    305 3_SM_500    500.00    3 1.0202   28.2     0.0      0.0     0.0 -----------------------------------------------------------------------------
                              1 510.09            0.0      0.0     0.0    303 3_LPS500    500.00    3  1  -1541.1    31.5
                                                                          303 3_LPS500    500.00    3  2  -1541.1    31.5
                                                                          304 3_R__500    500.00    3  1   -794.1   225.9
                                                                          306 3_K__500    500.00    3  1    938.6   -86.3
                                                                          307 3_M__500    500.00    3  1    549.9  -125.1
                                                                          307 3_M__500    500.00    3  2    549.9  -125.1
                                                                          311 3_SM_330    330.00    3  1    430.2     0.9  1.000LK
                                                                          311 3_SM_330    330.00    3  2    430.2     0.9  1.000LK
                                                                          311 3_SM_330    330.00    3  3    430.2     0.9  1.000LK
                                                                          314 3_SM_220    220.00    3  1    273.8    22.4  1.000LK
                                                                          314 3_SM_220    220.00    3  2    273.8    22.4  1.000LK
    306 3_K__500    500.00    3 1.0208   26.6     0.0   1230.0     0.0 -----------------------------------------------------------------------------
                              1 510.38            0.0    123.0     0.0    305 3_SM_500    500.00    3  1   -936.9    78.5
                                                                          307 3_M__500    500.00    3  1   -293.1  -201.5
    307 3_M__500    500.00    3 1.0233   26.8     0.0    650.0     0.0 -----------------------------------------------------------------------------
                              1 511.67            0.0     65.0     0.0    305 3_SM_500    500.00    3  1   -549.0    91.9
                                                                          305 3_SM_500    500.00    3  2   -549.0    91.9
                                                                          306 3_K__500    500.00    3  1    293.2   189.7
                                                                          308 3_H__500    500.00    3  1     77.4  -219.3
                                                                          308 3_H__500    500.00    3  2     77.4  -219.3
    308 3_H__500    500.00    3 1.0343   25.4     0.0    655.0     0.0 -----------------------------------------------------------------------------
                              1 517.13            0.0     66.0     0.0    307 3_M__500    500.00    3  1    -77.2  -143.1
                                                                          307 3_M__500    500.00    3  2    -77.2  -143.1
                                                                          315 3_H__275    275.00    3  1   -250.3   110.1  0.960LK
                                                                          315 3_H__275    275.00    3  2   -250.3   110.1  0.960LK
    309 3_D__330    330.00    3 1.0078    5.6     0.0    195.0     0.0 -----------------------------------------------------------------------------
                              1 332.58            0.0     20.0     0.0    102 1_HPS330    330.00    1  1    424.2  -128.0
                                                                          102 1_HPS330    330.00    1  2    424.2  -128.0
                                                                          102 1_HPS330    330.00    1  3    174.1   -81.9
                                                                          310 3_SS_330    330.00    3  1   -405.8   105.9
                                                                          310 3_SS_330    330.00    3  2   -405.8   105.9
                                                                          310 3_SS_330    330.00    3  3   -405.8   105.9
    310 3_SS_330    330.00    3 1.0222   31.6     0.0      0.0     0.0 -----------------------------------------------------------------------------
                              1 337.31            0.0      0.0     0.0    309 3_D__330    330.00    3  1    430.2    26.8
                                                                          309 3_D__330    330.00    3  2    430.2    26.8
                                                                          309 3_D__330    330.00    3  3    430.2    26.8
                                                                          311 3_SM_330    330.00    3  1   -645.3   -40.2
                                                                          311 3_SM_330    330.00    3  2   -645.3   -40.2
    311 3_SM_330    330.00    3 1.0311   19.7     0.0      0.0     0.0 -----------------------------------------------------------------------------
                              1 340.26            0.0      0.0     0.0    305 3_SM_500    500.00    3  1   -430.2    63.1  1.000UN
                                                                          305 3_SM_500    500.00    3  2   -430.2    63.1  1.000UN
                                                                          305 3_SM_500    500.00    3  3   -430.2    63.1  1.000UN
                                                                          310 3_SS_330    330.00    3  1    645.3   -94.6
                                                                          310 3_SS_330    330.00    3  2    645.3   -94.6
    312 3_YPS220    220.00    3 1.0370   35.2     0.0    115.0     0.0 -----------------------------------------------------------------------------
                              1 228.13            0.0     12.0     0.0    302 3_YPSGEN    20.000    3  1  -1532.0   -68.3  1.000UN
                                                                          313 3_RSV220    220.00    3  1    472.3    18.8
                                                                          313 3_RSV220    220.00    3  2    472.3    18.8
                                                                          313 3_RSV220    220.00    3  3    472.3    18.8
    313 3_RSV220    220.00    3 1.0150   23.7     0.0   2405.0     0.0 -----------------------------------------------------------------------------
                              1 223.30          129.4R   240.0     0.0    304 3_R__500    500.00    3  1   -364.2  -103.4  1.000UN
                                                                          304 3_R__500    500.00    3  2   -364.2  -103.4  1.000UN
                                                                          312 3_YPS220    220.00    3  1   -459.8    43.5
                                                                          312 3_YPS220    220.00    3  2   -459.8    43.5
                                                                          312 3_YPS220    220.00    3  3   -459.8    43.5
                                                                          314 3_SM_220    220.00    3  1   -148.5   -17.2
                                                                          314 3_SM_220    220.00    3  2   -148.5   -17.2
    314 3_SM_220    220.00    3 1.0169   24.5     0.0    250.0     0.0 -----------------------------------------------------------------------------
                              1 223.73            0.0     25.0     0.0    305 3_SM_500    500.00    3  1   -273.8    -5.0  1.000UN
                                                                          305 3_SM_500    500.00    3  2   -273.8    -5.0  1.000UN
                                                                          313 3_RSV220    220.00    3  1    148.8    -7.5
                                                                          313 3_RSV220    220.00    3  2    148.8    -7.5
    315 3_H__275    275.00    3 1.0517   28.8     0.0      0.0     0.0 -----------------------------------------------------------------------------
                              1 289.20            0.0      0.0     0.0    308 3_H__500    500.00    3  1    250.3   -92.7  1.000UN
                                                                          308 3_H__500    500.00    3  2    250.3   -92.7  1.000UN
                                                                          509 5_SSV275    275.00    5  1   -250.3    92.7
                                                                          509 5_SSV275    275.00    5  2   -250.3    92.7
    401 4_TPSGEN    20.000    4 1.0000  -35.7  1400.0      0.0     0.0 -----------------------------------------------------------------------------
                              1 20.000          466.1R     0.0     0.0    410 4_TPS275    275.00    4  1   1400.0   466.1  0.939LK

    402 4_CPSGEN    20.000    4 1.0000  -12.9   870.0      0.0     0.0 -----------------------------------------------------------------------------
                              1 20.000           94.1R     0.0     0.0    408 4_CPS275    275.00    4  1    870.0    94.1  0.952LK

    403 4_SPSGEN    20.000    4 1.0000  -11.5  1400.0      0.0     0.0 -----------------------------------------------------------------------------
                              1 20.000          188.6R     0.0     0.0    407 4_SPS275    275.00    4  1   1400.0   188.6  0.952LK

    404 4_GPSGEN    20.000    4 1.0000  -18.7  1464.0      0.0     0.0 -----------------------------------------------------------------------------
                              1 20.000          238.7R     0.0     0.0    405 4_GPS275    275.00    4  1   1464.0   238.7  0.952LK

    405 4_GPS275    275.00    4 1.0374  -25.2     0.0   1215.0     0.0 -----------------------------------------------------------------------------
                              1 285.30            0.0    120.0     0.0    404 4_GPSGEN    20.000    4  1  -1464.0   -69.1  1.000UN
                                                                          406 4_N__275    275.00    4  1   -190.6     7.8
                                                                          406 4_N__275    275.00    4  2   -190.6     7.8
                                                                          408 4_CPS275    275.00    4  1   -172.0     1.2
                                                                          409 4_W__275    275.00    4  1    267.4   -22.6
                                                                          409 4_W__275    275.00    4  2    267.4   -22.6
                                                                          409 4_W__275    275.00    4  3    267.4   -22.6
    406 4_N__275    275.00    4 1.0354  -20.4     0.0    905.0     0.0 -----------------------------------------------------------------------------
                              1 284.74            0.0     90.0     0.0    405 4_GPS275    275.00    4  1    191.9   -32.3
                                                                          405 4_GPS275    275.00    4  2    191.9   -32.3
                                                                          407 4_SPS275    275.00    4  1   -644.4   -12.7
                                                                          407 4_SPS275    275.00    4  2   -644.4   -12.7
    407 4_SPS275    275.00    4 1.0409  -17.7     0.0      0.0     0.0 -----------------------------------------------------------------------------
                              1 286.25            0.0      0.0     0.0    403 4_SPSGEN    20.000    4  1  -1400.0   -35.7  1.000UN
                                                                          406 4_N__275    275.00    4  1    646.7    35.4
                                                                          406 4_N__275    275.00    4  2    646.7    35.4
                                                                          408 4_CPS275    275.00    4  1    106.5   -35.1
    408 4_CPS275    275.00    4 1.0443  -20.7     0.0    185.0     0.0 -----------------------------------------------------------------------------
                              1 287.18            0.0     20.0     0.0    402 4_CPSGEN    20.000    4  1   -870.0    23.9  1.000UN
                                                                          405 4_GPS275    275.00    4  1    173.5    -7.8
                                                                          407 4_SPS275    275.00    4  1   -106.1    -4.2
                                                                          410 4_TPS275    275.00    4  1    205.9   -10.6
                                                                          410 4_TPS275    275.00    4  2    205.9   -10.6
                                                                          410 4_TPS275    275.00    4  3    205.9   -10.6
    409 4_W__275    275.00    4 1.0163  -43.1     0.0    310.0     0.0 -----------------------------------------------------------------------------
                              1 279.49            0.0     30.0   -62.0    405 4_GPS275    275.00    4  1   -255.4    20.7
                                                                          405 4_GPS275    275.00    4  2   -255.4    20.7
                                                                          405 4_GPS275    275.00    4  3   -255.4    20.7
                                                                          411 4_SP_275    275.00    4  1    228.0   -15.1
                                                                          411 4_SP_275    275.00    4  2    228.0   -15.1
    410 4_TPS275    275.00    4 1.0340  -41.9     0.0    650.0     0.0 -----------------------------------------------------------------------------
                              1 284.34            0.0     65.0     0.0    401 4_TPSGEN    20.000    4  1  -1400.0  -303.9  1.000UN
                                                                          408 4_CPS275    275.00    4  1   -199.3    13.7
                                                                          408 4_CPS275    275.00    4  2   -199.3    13.7
                                                                          408 4_CPS275    275.00    4  3   -199.3    13.7
                                                                          411 4_SP_275    275.00    4  1    352.4    46.3
                                                                          412 4_BW_275    275.00    4  1    366.1    47.3
                                                                          412 4_BW_275    275.00    4  2    366.1    47.3
                                                                          412 4_BW_275    275.00    4  3    366.1    47.3
                                                                          412 4_BW_275    275.00    4  4    366.1    47.3
                                                                          413 4_BR_275    275.00    4  1   -234.4   -19.0
                                                                          413 4_BR_275    275.00    4  2   -234.4   -19.0
    411 4_SP_275    275.00    4 0.9998  -52.2     0.0    700.0     0.0 -----------------------------------------------------------------------------
                              1 274.94            0.0     70.0   -30.0    409 4_W__275    275.00    4  1   -222.9     4.1
                                                                          409 4_W__275    275.00    4  2   -222.9     4.1
                                                                          410 4_TPS275    275.00    4  1   -347.2   -26.3
                                                                          412 4_BW_275    275.00    4  1     46.4   -11.0
                                                                          412 4_BW_275    275.00    4  2     46.4   -11.0
    412 4_BW_275    275.00    4 1.0000  -52.6     0.0   1535.0     0.0 -----------------------------------------------------------------------------
                              1 275.00           63.9R   155.0     0.0    410 4_TPS275    275.00    4  1   -360.5   -22.3
                                                                          410 4_TPS275    275.00    4  2   -360.5   -22.3
                                                                          410 4_TPS275    275.00    4  3   -360.5   -22.3
                                                                          410 4_TPS275    275.00    4  4   -360.5   -22.3
                                                                          411 4_SP_275    275.00    4  1    -46.4    -0.9
                                                                          411 4_SP_275    275.00    4  2    -46.4    -0.9
    413 4_BR_275    275.00    4 1.0479  -35.7     0.0      0.0     0.0 -----------------------------------------------------------------------------
                              1 288.17            0.0      0.0     0.0    410 4_TPS275    275.00    4  1    236.5     1.0
                                                                          410 4_TPS275    275.00    4  2    236.5     1.0
                                                                          414 4_BR_330    330.00    4  1   -157.7    -0.7  1.000LK
                                                                          414 4_BR_330    330.00    4  2   -157.7    -0.7  1.000LK
                                                                          414 4_BR_330    330.00    4  3   -157.7    -0.7  1.000LK
    414 4_BR_330    330.00    4 1.0480  -35.1     0.0      0.0     0.0 -----------------------------------------------------------------------------
                              1 345.84            0.0      0.0    32.9    413 4_BR_275    275.00    4  1    157.7     2.5  1.000UN
                                                                          413 4_BR_275    275.00    4  2    157.7     2.5  1.000UN
                                                                          413 4_BR_275    275.00    4  3    157.7     2.5  1.000UN
                                                                          415 4_BU_330    330.00    4  1   -236.5   -20.2
                                                                          415 4_BU_330    330.00    4  2   -236.5   -20.2
    415 4_BU_330    330.00    4 1.0537  -32.0     0.0      0.0     0.0 -----------------------------------------------------------------------------
                              1 347.74            0.0      0.0    66.6    414 4_BR_330    330.00    4  1    237.5   -10.1
                                                                          414 4_BR_330    330.00    4  2    237.5   -10.1
                                                                          416 4_DU_330    330.00    4  1   -237.5   -23.2
                                                                          416 4_DU_330    330.00    4  2   -237.5   -23.2
    416 4_DU_330    330.00    4 1.0597  -26.4     0.0      0.0     0.0 -----------------------------------------------------------------------------
                              1 349.69            0.0      0.0    67.4    205 2_ASV330    330.00    2  1   -239.4     1.2
                                                                          205 2_ASV330    330.00    2  2   -239.4     1.2
                                                                          415 4_BU_330    330.00    4  1    239.4   -34.8
                                                                          415 4_BU_330    330.00    4  2    239.4   -34.8
    501 5_NPSGEN    20.000    5 1.0000   86.3   600.0      0.0     0.0 -----------------------------------------------------------------------------
                              1 20.000          -17.6R     0.0     0.0    504 5_D__275    275.00    5  1    600.0   -17.6  0.952LK

    502 5_TPSGEN    15.000    5 1.0000   84.8   800.0      0.0     0.0 -----------------------------------------------------------------------------
                              1 15.000          212.1R     0.0     0.0    505 5_TPS275    275.00    5  1    800.0   212.1  0.930LK

    503 5_PPSGEN    15.000    5 1.0000   85.0   690.0      0.0     0.0 -----------------------------------------------------------------------------
                              1 15.000          184.4R     0.0     0.0    506 5_PPS275    275.00    5  1    690.0   184.4  0.930LK

    504 5_D__275    275.00    5 1.0643   78.5     0.0    200.0     0.0 -----------------------------------------------------------------------------
                              1 292.68            0.0     40.0   101.9    501 5_NPSGEN    20.000    5  1   -600.0   101.0  1.000UN
                                                                          507 5_PSV275    275.00    5  1     40.1   -19.6
                                                                          507 5_PSV275    275.00    5  2     40.1   -19.6
                                                                          508 5_CG_275    275.00    5  1    159.9  -101.8
                                                                          508 5_CG_275    275.00    5  2    159.9  -101.8
    505 5_TPS275    275.00    5 1.0505   78.3     0.0      0.0     0.0 -----------------------------------------------------------------------------
                              1 288.88            0.0      0.0     0.0    502 5_TPSGEN    15.000    5  1   -800.0  -117.3  1.000UN
                                                                          507 5_PSV275    275.00    5  1    324.2    40.5
                                                                          507 5_PSV275    275.00    5  2    324.2    40.5
                                                                          508 5_CG_275    275.00    5  1    151.6    36.3
    506 5_PPS275    275.00    5 1.0489   78.0     0.0      0.0     0.0 -----------------------------------------------------------------------------
                              1 288.44            0.0      0.0     0.0    503 5_PPSGEN    15.000    5  1   -690.0   -96.1  1.000UN
                                                                          507 5_PSV275    275.00    5  1    281.7    32.6
                                                                          507 5_PSV275    275.00    5  2    281.7    32.6
                                                                          508 5_CG_275    275.00    5  1    126.5    31.0
    507 5_PSV275    275.00    5 1.0400   75.5     0.0    710.0     0.0 -----------------------------------------------------------------------------
                              1 286.00           36.8R   140.0     0.0    504 5_D__275    275.00    5  1    -39.7   -40.0
                                                                          504 5_D__275    275.00    5  2    -39.7   -40.0
                                                                          505 5_TPS275    275.00    5  1   -322.6   -27.3
                                                                          505 5_TPS275    275.00    5  2   -322.6   -27.3
                                                                          506 5_PPS275    275.00    5  1   -280.6   -23.4
                                                                          506 5_PPS275    275.00    5  2   -280.6   -23.4
                                                                          508 5_CG_275    275.00    5  1    -63.8    27.3
                                                                          509 5_SSV275    275.00    5  1    106.6     8.5
                                                                          509 5_SSV275    275.00    5  2    106.6     8.5
                                                                          509 5_SSV275    275.00    5  3    106.6     8.5
                                                                          509 5_SSV275    275.00    5  4    106.6     8.5
                                                                          509 5_SSV275    275.00    5  5    106.6     8.5
                                                                          509 5_SSV275    275.00    5  6    106.6     8.5
    508 5_CG_275    275.00    5 1.0354   76.2     0.0    520.0     0.0 -----------------------------------------------------------------------------
                              1 284.74            0.0    105.0     0.0    504 5_D__275    275.00    5  1   -153.4    10.7
                                                                          504 5_D__275    275.00    5  2   -153.4    10.7
                                                                          505 5_TPS275    275.00    5  1   -151.1   -48.5
                                                                          506 5_PPS275    275.00    5  1   -126.1   -41.8
                                                                          507 5_PSV275    275.00    5  1     63.9   -36.1
    509 5_SSV275    275.00    5 1.0270   35.8     0.0     70.0     0.0 -----------------------------------------------------------------------------
                              1 282.42           50.2R    15.0     0.0    315 3_H__275    275.00    3  1    254.9   -80.1
                                                                          315 3_H__275    275.00    3  2    254.9   -80.1
                                                                          507 5_PSV275    275.00    5  1    -96.6    32.5
                                                                          507 5_PSV275    275.00    5  2    -96.6    32.5
                                                                          507 5_PSV275    275.00    5  3    -96.6    32.5
                                                                          507 5_PSV275    275.00    5  4    -96.6    32.5
                                                                          507 5_PSV275    275.00    5  5    -96.6    32.5
                                                                          507 5_PSV275    275.00    5  6    -96.6    32.5
